
**** 10/03/03 15:01:36 ******* PSpice 9.2.3WU (Sep 2002) ****** ID# 1111111111 
 ** Profile: "Example 2.9 AC Gain-AC"  [ C:\Documents and Settings\Adel Sedra\My Documents\SEDRA WORK\SPICE Examples\CHAPTER 2\chapte


 ****     CIRCUIT DESCRIPTION


******************************************************************************




** Creating circuit file "chapter 2-example 2.9 ac gain-ac.sim.cir" 
** WARNING: THIS AUTOMATICALLY GENERATED FILE MAY BE OVERWRITTEN BY SUBSEQUENT SIMULATIONS

*Libraries: 
* Local Libraries :
.LIB "..\sedra_lib.lib" 
* From [PSPICE NETLIST] section of e:\cadence\tools\PSpice\PSpice.ini file:
.lib "nom.lib" 

*Analysis directives: 
.AC DEC 25 1 10E6
.PROBE V(alias(*)) I(alias(*)) W(alias(*)) D(alias(*)) NOISE(alias(*)) 
.INC ".\chapter 2-Example 2.9 AC Gain.net" 



**** INCLUDING "chapter 2-Example 2.9 AC Gain.net" ****
* source CHAPTER 2
E_En         CM INN D 0 0.5
V_VCC         VCC 0 15V
V_VEE         0 VEE 15V
V_VCM         CM 0 0Vdc
V_Vd         D 0 DC 0Vdc AC 1Vac 
X_U1         INP INN VCC VEE OUT uA741
E_Ep         INP CM D 0 0.5

**** RESUMING "chapter 2-example 2.9 ac gain-ac.sim.cir" ****
.END

**** 10/03/03 15:01:36 ******* PSpice 9.2.3WU (Sep 2002) ****** ID# 1111111111 
 ** Profile: "Example 2.9 AC Gain-AC"  [ C:\Documents and Settings\Adel Sedra\My Documents\SEDRA WORK\SPICE Examples\CHAPTER 2\chapte


 ****     Diode MODEL PARAMETERS


******************************************************************************




               X_U1.dx         X_U1.dy         
          IS  800.000000E-18  800.000000E-18 
          RS    1               1.000000E-03 
         CJO                   10.000000E-12 


**** 10/03/03 15:01:36 ******* PSpice 9.2.3WU (Sep 2002) ****** ID# 1111111111 
 ** Profile: "Example 2.9 AC Gain-AC"  [ C:\Documents and Settings\Adel Sedra\My Documents\SEDRA WORK\SPICE Examples\CHAPTER 2\chapte


 ****     BJT MODEL PARAMETERS


******************************************************************************




               X_U1.qx         
               NPN             
          IS  800.000000E-18 
          BF   93.75         
          NF    1            
          BR    1            
          NR    1            
          CN    2.42         
           D     .87         


**** 10/03/03 15:01:36 ******* PSpice 9.2.3WU (Sep 2002) ****** ID# 1111111111 
 ** Profile: "Example 2.9 AC Gain-AC"  [ C:\Documents and Settings\Adel Sedra\My Documents\SEDRA WORK\SPICE Examples\CHAPTER 2\chapte


 ****     SMALL SIGNAL BIAS SOLUTION       TEMPERATURE =   27.000 DEG C


******************************************************************************



 NODE   VOLTAGE     NODE   VOLTAGE     NODE   VOLTAGE     NODE   VOLTAGE


(    D)    0.0000  (   CM)    0.0000  (  INN)    0.0000  (  INP)    0.0000      

(  OUT)    3.8433  (  VCC)   15.0000  (  VEE)  -15.0000  (X_U1.6)-362.2E-06     

(X_U1.7)    3.8433 (X_U1.8)    3.8433 (X_U1.9)    0.0000 (X_U1.10)    -.6077    

(X_U1.11)   14.9600                   (X_U1.12)   14.9600                       

(X_U1.13)    -.5938                   (X_U1.14)    -.5938                       

(X_U1.53)   14.0000                   (X_U1.54)  -14.0000                       

(X_U1.90) 7.795E-09                   (X_U1.91)   40.0000                       

(X_U1.92)  -40.0000                   (X_U1.99)    0.0000                   




    VOLTAGE SOURCE CURRENTS
    NAME         CURRENT

    V_VCC       -1.667E-03
    V_VEE       -1.667E-03
    V_VCM       -1.595E-07
    V_Vd         0.000E+00
    X_U1.vb     -3.622E-09
    X_U1.vc      1.016E-11
    X_U1.ve      1.817E-11
    X_U1.vlim    7.795E-12
    X_U1.vlp    -4.000E-11
    X_U1.vln    -4.000E-11

    TOTAL POWER DISSIPATION   5.00E-02  WATTS



          JOB CONCLUDED

**** 10/03/03 15:01:36 ******* PSpice 9.2.3WU (Sep 2002) ****** ID# 1111111111 
 ** Profile: "Example 2.9 AC Gain-AC"  [ C:\Documents and Settings\Adel Sedra\My Documents\SEDRA WORK\SPICE Examples\CHAPTER 2\chapte


 ****     JOB STATISTICS SUMMARY


******************************************************************************



  Total job time (using Solver 1)   =         .11
