
**** 09/25/03 17:25:07 ******* PSpice 9.2.3WU (Sep 2002) ****** ID# 1111111111 
 ** Profile: "Slew Rate Test-DC Sweep"  [ C:\Documents and Settings\Adel Sedra\My Documents\SEDRA WORK\SEDRA-PSPICE-CD\CHAPTER 9\chap


 ****     CIRCUIT DESCRIPTION


******************************************************************************




** Creating circuit file "chapter 9-Slew Rate Test-DC Sweep.sim.cir" 
** WARNING: THIS AUTOMATICALLY GENERATED FILE MAY BE OVERWRITTEN BY SUBSEQUENT SIMULATIONS

*Libraries: 
* Local Libraries :
.LIB "..\sedra_lib.lib" 
* From [PSPICE NETLIST] section of e:\cadence\tools\PSpice\PSpice.ini file:
.lib "nom.lib" 

*Analysis directives: 
.DC LIN V_Vpulse 0 3.3 0.1m 
.PROBE V(alias(*)) I(alias(*)) W(alias(*)) D(alias(*)) NOISE(alias(*)) 
.INC ".\chapter 9-Slew Rate Test.net" 



**** INCLUDING "chapter 9-Slew Rate Test.net" ****
* source CHAPTER 9
R_R         A N136150  {R}  
M_M3         B B 0 0 NMOS0P5  
+ L=0.6u  
+ W=1.25u  
+ AD=1.72E-12  
+ AS=1.72E-12  
+ PD=5.25E-6  
+ PS=5.25E-6      
+ M={M3}
C_Cc         N136150 OUT  {Cc}  
M_M2         A IN N135996 N135996 PMOS0P5  
+ L=0.6u  
+ W=1.25u  
+ AD=1.72E-12  
+ AS=1.72E-12  
+ PD=5.25e-6  
+ PS=5.25E-6      
+ M={M2}
C_CL         0 OUT  {Cload}  
M_M6         OUT A 0 0 NMOS0P5  
+ L=0.6u  
+ W=1.25u  
+ AD=1.72E-12  
+ AS=1.72E-12  
+ PD=5.25E-6  
+ PS=5.25E-6      
+ M={M6}
M_M1         B OUT N135996 N135996 PMOS0P5  
+ L=0.6u  
+ W=1.25u  
+ AD=1.72E-12  
+ AS=1.72E-12  
+ PD=5.25e-6  
+ PS=5.25E-6      
+ M={M1}
V_VCC         VDD 0 {VDD}
V_Vpulse         IN 0 DC 1.65 
+PULSE {1.65+{Vstep}/2} {1.65-{Vstep}/2} 0 1p 1p 0.1u 0.2u
M_M8         N135944 N135944 VDD VDD PMOS0P5  
+ L=0.6u  
+ W=1.25u  
+ AD=1.72E-12  
+ AS=1.72E-12  
+ PD=5.25e-6  
+ PS=5.25E-6      
+ M={M8}
M_M5         N135996 N135944 VDD VDD PMOS0P5  
+ L=0.6u  
+ W=1.25u  
+ AD=1.72E-12  
+ AS=1.72E-12  
+ PD=5.25e-6  
+ PS=5.25E-6      
+ M={M5}
I_Iref         N135944 0 DC {Iref}  
M_M4         A B 0 0 NMOS0P5  
+ L=0.6u  
+ W=1.25u  
+ AD=1.72E-12  
+ AS=1.72E-12  
+ PD=5.25E-6  
+ PS=5.25E-6      
+ M={M4}
M_M7         OUT N135944 VDD VDD PMOS0P5  
+ L=0.6u  
+ W=1.25u  
+ AD=1.72E-12  
+ AS=1.72E-12  
+ PD=5.25e-6  
+ PS=5.25E-6      
+ M={M7}
.PARAM  VDD=3.3 Cload=1p M1=8 M2=8 M3=2 Iref=90u M4=2 M5=16 M6=4 VCM=1.65 M7=16
+  Vstep=10m M8=16 Gain=-10 R=3.2K Cc=0.6p

**** RESUMING "chapter 9-Slew Rate Test-DC Sweep.sim.cir" ****
.END

WARNING -- LAMBDA for MOSFET model PMOS0P5 is unusually
           large and might cause nonconvergence

**** 09/25/03 17:25:07 ******* PSpice 9.2.3WU (Sep 2002) ****** ID# 1111111111 
 ** Profile: "Slew Rate Test-DC Sweep"  [ C:\Documents and Settings\Adel Sedra\My Documents\SEDRA WORK\SEDRA-PSPICE-CD\CHAPTER 9\chap


 ****     MOSFET MODEL PARAMETERS


******************************************************************************




               NMOS0P5         PMOS0P5         
               NMOS            PMOS            
       LEVEL    1               1            
           L  100.000000E-06  100.000000E-06 
           W  100.000000E-06  100.000000E-06 
          LD   80.000000E-09   90.000000E-09 
         VTO     .7             -.8          
          KP  167.204900E-06   41.801210E-06 
       GAMMA     .5              .45         
         PHI     .8              .8          
      LAMBDA    1.000000E-03     .2          
          IS   10.000000E-15   10.000000E-15 
          JS   10.000000E-09    5.000000E-09 
          PB     .9              .9          
        PBSW     .9              .9          
          CJ  570.000000E-06  930.000000E-06 
        CJSW  120.000000E-12  170.000000E-12 
        MJSW     .4              .35         
        CGSO  400.000000E-12  350.000000E-12 
        CGDO  400.000000E-12  350.000000E-12 
        CGBO  380.000000E-12  380.000000E-12 
         TOX    9.500000E-09    9.500000E-09 
          XJ    0               0            
          UO  460             115            
       UCRIT   10.000000E+03   10.000000E+03 
      DIOMOD    1               1            
         VFB    0               0            
        LETA    0               0            
        WETA    0               0            
          U0    0               0            
        TEMP    0               0            
         VDD    0               0            
       XPART    0               0            


WARNING -- LAMBDA for MOSFET model PMOS0P5 is unusually
           large and might cause nonconvergence

WARNING -- LAMBDA for MOSFET model PMOS0P5 is unusually
           large and might cause nonconvergence


          JOB CONCLUDED

**** 09/25/03 17:25:07 ******* PSpice 9.2.3WU (Sep 2002) ****** ID# 1111111111 
 ** Profile: "Slew Rate Test-DC Sweep"  [ C:\Documents and Settings\Adel Sedra\My Documents\SEDRA WORK\SEDRA-PSPICE-CD\CHAPTER 9\chap


 ****     JOB STATISTICS SUMMARY


******************************************************************************



  Total job time (using Solver 1)   =        5.53
