
**** 09/29/03 16:14:18 ******* PSpice 9.2.3WU (Sep 2002) ****** ID# 1111111111 
 ** Profile: "Example 2.8 AC testbench-AC"  [ C:\Documents and Settings\Adel Sedra\My Documents\SEDRA WORK\SEDRA-PSPICE-CD\CHAPTER 2\


 ****     CIRCUIT DESCRIPTION


******************************************************************************




** Creating circuit file "chapter 2-Example 2.8 AC testbench-AC.sim.cir" 
** WARNING: THIS AUTOMATICALLY GENERATED FILE MAY BE OVERWRITTEN BY SUBSEQUENT SIMULATIONS

*Libraries: 
* Local Libraries :
* From [PSPICE NETLIST] section of e:\cadence\tools\PSpice\PSpice.ini file:
.lib "nom.lib" 

*Analysis directives: 
.AC DEC 25 1 10M
-------------$
ERROR -- Invalid value
.PROBE V(alias(*)) I(alias(*)) W(alias(*)) D(alias(*)) NOISE(alias(*)) 
.INC ".\chapter 2-Example 2.8 AC testbench.net" 



**** INCLUDING "chapter 2-Example 2.8 AC testbench.net" ****
* source CHAPTER 2
R_A1_Rid         N43767 A1_2  {Rid}  
V_A1_VOS         A1_2 N43900 {VOS}
E_A1_Ed         A1_N43852 0 A1_2 N43767 {A0d}
C_A1_Cb         0 A1_B  {Cb}  
R_A1_Ro         OUT A1_N44070  {Ro}  
E_A1_Eb         A1_N44070 0 A1_B 0 1
R_A1_Rb         A1_B A1_N43852  {Rb}  
V_Vin         N43900 0 DC 0Vdc AC 1Vac 
R_R1         N43767 0  {R1}  
R_R2         N43767 OUT  {R2}  
.PARAM  R1=1K R2=100K VOS=1e-3 Rid=2e6 Ro=75 Cb=1e-12 ft=1e6 A0d=1e5 Rb=
+ {A0d/(2*3.142*ft*Cb)}

**** RESUMING "chapter 2-Example 2.8 AC testbench-AC.sim.cir" ****
.END
