
**** 10/01/03 21:30:21 ******* PSpice 9.2.3WU (Sep 2002) ****** ID# 1111111111 
 ** Profile: "Example 11.9 DC Test-DC sweep"  [ C:\Documents and Settings\Adel Sedra\My Documents\SEDRA WORK\SEDRA-PSPICE-CD\CHAPTER 


 ****     CIRCUIT DESCRIPTION


******************************************************************************




** Creating circuit file "chapter 11-Example 11.9 DC Test-DC sweep.sim.cir" 
** WARNING: THIS AUTOMATICALLY GENERATED FILE MAY BE OVERWRITTEN BY SUBSEQUENT SIMULATIONS

*Libraries: 
* Local Libraries :
.LIB "..\sedra_lib.lib" 
* From [PSPICE NETLIST] section of e:\cadence\tools\PSpice\PSpice.ini file:
.lib "nom.lib" 

*Analysis directives: 
.DC LIN V_Va -2 0 0.1m 
.STEP TEMP LIST 0 70 
.PROBE V(alias(*)) I(alias(*)) W(alias(*)) D(alias(*)) NOISE(alias(*)) 
.INC ".\chapter 11-Example 11.9 DC Test.net" 



**** INCLUDING "chapter 11-Example 11.9 DC Test.net" ****
* source CHAPTER 11
Q_G1_QNOR         0 G1_N22108 N32986 QECL
Q_G1_Q1         0 G1_N21790 R QECL
Q_G1_QOR         0 G1_N22118 N32962 QECL
Q_G1_Q2         G1_N21790 G1_N21790 G1_N21876 QECL
R_G1_Ra         VEE1 N18730  {Ra}  
Q_G1_Q3         G1_N21876 G1_N21876 G1_N219280 QECL
R_G1_{R1}         G1_N21790 0  {R1}  
R_G1_Rc1         G1_N22108 0  {Rc1}  
R_G1_R3         VEE1 R  {R3}  
Q_G1_QA         G1_N22108 N18730 G1_N22254 QECL
R_G1_Rc2         G1_N22118 0  {Rc2}  
R_G1_Rb         VEE1 N18566  {Rb}  
Q_G1_QB         G1_N22108 N18566 G1_N22254 QECL
R_G1_Re         VEE1 G1_N22254  {Re}  
Q_G1_QR         G1_N22118 R G1_N22254 QECL
R_G1_R2         VEE1 G1_N219280  {R2}  
V_Vsupply2         0 VEE1 {VEE1}
V_Vb         N18566 0 DC -1.77Vdc AC 1Vac 
R_Rt3         VEE2 N32962  {Rt1}  
V_Va         N18730 0 DC -1.32Vdc AC 1Vac 
R_Rt2         VEE2 N32986  {Rt2}  
V_Vsupply1         0 VEE2 {VEE2}
.PARAM  VEE=5.2 R1=907 Re=779 R2=4.98K R3=6.1K VEE1=5.2 VEE2=2 Ra=50K Rc1=220
+  Rt1=50 Rb=50K Rt2=50 Rc2=245

**** RESUMING "chapter 11-Example 11.9 DC Test-DC sweep.sim.cir" ****
.END

**** 10/01/03 21:30:21 ******* PSpice 9.2.3WU (Sep 2002) ****** ID# 1111111111 
 ** Profile: "Example 11.9 DC Test-DC sweep"  [ C:\Documents and Settings\Adel Sedra\My Documents\SEDRA WORK\SEDRA-PSPICE-CD\CHAPTER 


 ****     BJT MODEL PARAMETERS


******************************************************************************




               QECL            
               NPN             
          IS  260.000000E-18 
          BF  100            
          NF    1            
         VAF  100            
          BR    1            
          NR    1            
         CJE    1.000000E-12 
         CJC    1.500000E-12 
          TF  100.000000E-12 
          CN    2.42         
           D     .87         



          JOB CONCLUDED

**** 10/01/03 21:30:21 ******* PSpice 9.2.3WU (Sep 2002) ****** ID# 1111111111 
 ** Profile: "Example 11.9 DC Test-DC sweep"  [ C:\Documents and Settings\Adel Sedra\My Documents\SEDRA WORK\SEDRA-PSPICE-CD\CHAPTER 


 ****     JOB STATISTICS SUMMARY


******************************************************************************



  Total job time (using Solver 1)   =        6.45
