
**** 10/01/03 20:51:58 ******* PSpice 9.2.3WU (Sep 2002) ****** ID# 1111111111 
 ** Profile: "Example 5.20-DC Sweep"  [ C:\Documents and Settings\Adel Sedra\My Documents\SEDRA WORK\SEDRA-PSPICE-CD\CHAPTER 5\chapte


 ****     CIRCUIT DESCRIPTION


******************************************************************************




** Creating circuit file "chapter 5-example 5.20-dc sweep.sim.cir" 
** WARNING: THIS AUTOMATICALLY GENERATED FILE MAY BE OVERWRITTEN BY SUBSEQUENT SIMULATIONS

*Libraries: 
* Local Libraries :
.LIB "..\sedra_lib.lib" 
* From [PSPICE NETLIST] section of e:\cadence\tools\PSpice\PSpice.ini file:
.lib "nom.lib" 

*Analysis directives: 
.DC LIN I_Ibase 0 200u 10n 
.PROBE V(alias(*)) I(alias(*)) W(alias(*)) D(alias(*)) NOISE(alias(*)) 
.INC ".\chapter 5-Example 5.20.net" 



**** INCLUDING "chapter 5-Example 5.20.net" ****
* source CHAPTER 5
Q_Q1         N107716 N108658 0 Q2N3904
V_V1         N107716 0 {VCE}
I_Ibase         0 N108658 DC {ib}  
.PARAM  VCE=2V ib=10u

**** RESUMING "chapter 5-example 5.20-dc sweep.sim.cir" ****
.END

**** 10/01/03 20:51:58 ******* PSpice 9.2.3WU (Sep 2002) ****** ID# 1111111111 
 ** Profile: "Example 5.20-DC Sweep"  [ C:\Documents and Settings\Adel Sedra\My Documents\SEDRA WORK\SEDRA-PSPICE-CD\CHAPTER 5\chapte


 ****     BJT MODEL PARAMETERS


******************************************************************************




               Q2N3904         
               NPN             
          IS    6.734000E-15 
          BF  416.4          
          NF    1            
         VAF   74.03         
         IKF     .06678      
         ISE    6.734000E-15 
          NE    1.259        
          BR     .7371       
          NR    1            
          RB   10            
          RC    1            
         CJE    4.493000E-12 
         MJE     .2593       
         CJC    3.638000E-12 
         MJC     .3085       
          TF  301.200000E-12 
         XTF    2            
         VTF    4            
         ITF     .4          
          TR  239.500000E-09 
         XTB    1.5          
          CN    2.42         
           D     .87         



          JOB CONCLUDED

**** 10/01/03 20:51:58 ******* PSpice 9.2.3WU (Sep 2002) ****** ID# 1111111111 
 ** Profile: "Example 5.20-DC Sweep"  [ C:\Documents and Settings\Adel Sedra\My Documents\SEDRA WORK\SEDRA-PSPICE-CD\CHAPTER 5\chapte


 ****     JOB STATISTICS SUMMARY


******************************************************************************



  Total job time (using Solver 1)   =        1.93
