
**** 10/01/03 21:16:53 ******* PSpice 9.2.3WU (Sep 2002) ****** ID# 1111111111 
 ** Profile: "Example 9.4 Opamp-DC Transfer"  [ C:\Documents and Settings\Adel Sedra\My Documents\SEDRA WORK\SEDRA-PSPICE-CD\CHAPTER 


 ****     CIRCUIT DESCRIPTION


******************************************************************************




** Creating circuit file "chapter 9-Example 9.4 Opamp-DC Transfer.sim.cir" 
** WARNING: THIS AUTOMATICALLY GENERATED FILE MAY BE OVERWRITTEN BY SUBSEQUENT SIMULATIONS

*Libraries: 
* Local Libraries :
.LIB "..\sedra_lib.lib" 
* From [PSPICE NETLIST] section of e:\cadence\tools\PSpice\PSpice.ini file:
.lib "nom.lib" 

*Analysis directives: 
.DC LIN V_Vd -5m 5m 1u 
.PROBE V(alias(*)) I(alias(*)) W(alias(*)) D(alias(*)) NOISE(alias(*)) 
.INC ".\chapter 9-Example 9.4 Opamp.net" 



**** INCLUDING "chapter 9-Example 9.4 Opamp.net" ****
* source CHAPTER 9
C_CL         0 OUT  {Cload}  
M_M1         N00885 INN N00766 N00766 PMOS0P5  
+ L=0.6u  
+ W=1.25u  
+ AD=1.72E-12  
+ AS=1.72E-12  
+ PD=5.25e-6  
+ PS=5.25E-6      
+ M={M1}
V_Vd         D 0 DC 0Vdc AC 1Vac 
M_M7         OUT N01450 VDD VDD PMOS0P5  
+ L=0.6u  
+ W=1.25u  
+ AD=1.72E-12  
+ AS=1.72E-12  
+ PD=5.25e-6  
+ PS=5.25E-6      
+ M={M7}
E_Ep         INP N73627 D 0 0.5
C_Cc         N82248 OUT  {Cc}  
M_M4         A N00885 0 0 NMOS0P5  
+ L=0.6u  
+ W=1.25u  
+ AD=1.72E-12  
+ AS=1.72E-12  
+ PD=5.25E-6  
+ PS=5.25E-6      
+ M={M4}
E_En         N73627 INN D 0 0.5
M_M2         A INP N00766 N00766 PMOS0P5  
+ L=0.6u  
+ W=1.25u  
+ AD=1.72E-12  
+ AS=1.72E-12  
+ PD=5.25e-6  
+ PS=5.25E-6      
+ M={M2}
M_M3         N00885 N00885 0 0 NMOS0P5  
+ L=0.6u  
+ W=1.25u  
+ AD=1.72E-12  
+ AS=1.72E-12  
+ PD=5.25E-6  
+ PS=5.25E-6      
+ M={M3}
R_R         A N82248  {R}  
I_Iref         N01450 0 DC {Iref}  
V_VCM         N73627 0 {VCM}
V_VCC         VDD 0 {VDD}
M_M6         OUT A 0 0 NMOS0P5  
+ L=0.6u  
+ W=1.25u  
+ AD=1.72E-12  
+ AS=1.72E-12  
+ PD=5.25E-6  
+ PS=5.25E-6      
+ M={M6}
M_M5         N00766 N01450 VDD VDD PMOS0P5  
+ L=0.6u  
+ W=1.25u  
+ AD=1.72E-12  
+ AS=1.72E-12  
+ PD=5.25e-6  
+ PS=5.25E-6      
+ M={M5}
M_M8         N01450 N01450 VDD VDD PMOS0P5  
+ L=0.6u  
+ W=1.25u  
+ AD=1.72E-12  
+ AS=1.72E-12  
+ PD=5.25e-6  
+ PS=5.25E-6      
+ M={M8}
.PARAM  VDD=3.3 Cload=1p M1=8 M2=8 M3=2 Iref=90u M4=2 M5=16 M6=4 VCM=1.65 M7=16
+  M8=16 R=1.53K Cc=0.6p

**** RESUMING "chapter 9-Example 9.4 Opamp-DC Transfer.sim.cir" ****
.END

WARNING -- LAMBDA for MOSFET model PMOS0P5 is unusually
           large and might cause nonconvergence

**** 10/01/03 21:16:53 ******* PSpice 9.2.3WU (Sep 2002) ****** ID# 1111111111 
 ** Profile: "Example 9.4 Opamp-DC Transfer"  [ C:\Documents and Settings\Adel Sedra\My Documents\SEDRA WORK\SEDRA-PSPICE-CD\CHAPTER 


 ****     MOSFET MODEL PARAMETERS


******************************************************************************




               PMOS0P5         NMOS0P5         
               PMOS            NMOS            
       LEVEL    1               1            
           L  100.000000E-06  100.000000E-06 
           W  100.000000E-06  100.000000E-06 
          LD   90.000000E-09   80.000000E-09 
         VTO    -.8              .7          
          KP   41.801210E-06  167.204900E-06 
       GAMMA     .45             .5          
         PHI     .8              .8          
      LAMBDA     .2             1.000000E-03 
          IS   10.000000E-15   10.000000E-15 
          JS    5.000000E-09   10.000000E-09 
          PB     .9              .9          
        PBSW     .9              .9          
          CJ  930.000000E-06  570.000000E-06 
        CJSW  170.000000E-12  120.000000E-12 
        MJSW     .35             .4          
        CGSO  350.000000E-12  400.000000E-12 
        CGDO  350.000000E-12  400.000000E-12 
        CGBO  380.000000E-12  380.000000E-12 
         TOX    9.500000E-09    9.500000E-09 
          XJ    0               0            
          UO  115             460            
       UCRIT   10.000000E+03   10.000000E+03 
      DIOMOD    1               1            
         VFB    0               0            
        LETA    0               0            
        WETA    0               0            
          U0    0               0            
        TEMP    0               0            
         VDD    0               0            
       XPART    0               0            


WARNING -- LAMBDA for MOSFET model PMOS0P5 is unusually
           large and might cause nonconvergence

WARNING -- LAMBDA for MOSFET model PMOS0P5 is unusually
           large and might cause nonconvergence


          JOB CONCLUDED

**** 10/01/03 21:16:53 ******* PSpice 9.2.3WU (Sep 2002) ****** ID# 1111111111 
 ** Profile: "Example 9.4 Opamp-DC Transfer"  [ C:\Documents and Settings\Adel Sedra\My Documents\SEDRA WORK\SEDRA-PSPICE-CD\CHAPTER 


 ****     JOB STATISTICS SUMMARY


******************************************************************************



  Total job time (using Solver 1)   =        1.85
