
**** 10/01/03 21:04:46 ******* PSpice 9.2.3WU (Sep 2002) ****** ID# 1111111111 
 ** Profile: "Example 7.8-Common Mode DC Transfer"  [ C:\Documents and Settings\Adel Sedra\My Documents\SEDRA WORK\SEDRA-PSPICE-CD\CH


 ****     CIRCUIT DESCRIPTION


******************************************************************************




** Creating circuit file "chapter 7-Example 7.8-Common Mode DC Transfer.sim.cir" 
** WARNING: THIS AUTOMATICALLY GENERATED FILE MAY BE OVERWRITTEN BY SUBSEQUENT SIMULATIONS

*Libraries: 
* Local Libraries :
.LIB "..\sedra_lib.lib" 
* From [PSPICE NETLIST] section of e:\cadence\tools\PSpice\PSpice.ini file:
.lib "nom.lib" 

*Analysis directives: 
.DC LIN V_VCM -15 15 1m 
.PROBE V(alias(*)) I(alias(*)) W(alias(*)) D(alias(*)) NOISE(alias(*)) 
.INC ".\chapter 7-Example 7.8.net" 



**** INCLUDING "chapter 7-Example 7.8.net" ****
* source CHAPTER 7
Q_Q6C         N71939 N71917 VEE Q2N3904
R_R3         A VCC  {R3}  
Q_Q7         B A N72373 Q2N3906
Q_Q6B         N71939 N71917 VEE Q2N3904
R_R4         N72373 VCC  {R4}  
V_Vd         D 0 DC -260.4u AC 1Vac 
R_R5         VEE B  {R5}  
R_R7         N80593 VCC  {R3_2}  
Q_Q6A         N71939 N71917 VEE Q2N3904
R_R6         VEE OUT  {R6}  
E_Ep         INP N72475 D 0 0.5
Q_Q1         N72383 INP N71929 Q2N3904
Q_Q3         N71929 N71917 VEE Q2N3904
E_En         N72475 INN D 0 0.5
Q_Q4         N80593 N72383 N71939 Q2N3904
Q_Q2         N72387 INN N71929 Q2N3904
Q_Q8         VCC B OUT Q2N3904
R_RB         N71917 0  {RB}  
Q_Q5         A N72387 N71939 Q2N3904
V_VCM         N72475 0 {VCM}
V_VCC         VCC 0 {VCC}
R_R1         N72383 VCC  {R1}  
Q_Q6D         N71939 N71917 VEE Q2N3904
V_VEE         VEE 0 {VEE}
Q_Q9         N71917 N71917 VEE Q2N3904
R_R2         N72387 VCC  {R2}  
.PARAM  RB=28.6K R1=20K VEE=-15 VCC=15 R2=20K R3=3K R4=2.3K R5=15.7K R6=3K
+  R3_2=1E-10 VCM=0

**** RESUMING "chapter 7-Example 7.8-Common Mode DC Transfer.sim.cir" ****
.END

**** 10/01/03 21:04:46 ******* PSpice 9.2.3WU (Sep 2002) ****** ID# 1111111111 
 ** Profile: "Example 7.8-Common Mode DC Transfer"  [ C:\Documents and Settings\Adel Sedra\My Documents\SEDRA WORK\SEDRA-PSPICE-CD\CH


 ****     BJT MODEL PARAMETERS


******************************************************************************




               Q2N3904         Q2N3906         
               NPN             PNP             
          IS    6.734000E-15    1.410000E-15 
          BF  416.4           180.7          
          NF    1               1            
         VAF   74.03           18.7          
         IKF     .06678          .08         
         ISE    6.734000E-15                 
          NE    1.259                        
          BR     .7371          4.977        
          NR    1               1            
          RB   10              10            
          RC    1               2.5          
         CJE    4.493000E-12    8.063000E-12 
         MJE     .2593           .3677       
         CJC    3.638000E-12    9.728000E-12 
         MJC     .3085           .5776       
          TF  301.200000E-12  179.300000E-12 
         XTF    2               6            
         VTF    4               4            
         ITF     .4              .4          
          TR  239.500000E-09   33.420000E-09 
         XTB    1.5             1.5          
          CN    2.42            2.2          
           D     .87             .52         



          JOB CONCLUDED

**** 10/01/03 21:04:46 ******* PSpice 9.2.3WU (Sep 2002) ****** ID# 1111111111 
 ** Profile: "Example 7.8-Common Mode DC Transfer"  [ C:\Documents and Settings\Adel Sedra\My Documents\SEDRA WORK\SEDRA-PSPICE-CD\CH


 ****     JOB STATISTICS SUMMARY


******************************************************************************



  Total job time (using Solver 1)   =        6.85
